/*--------------------------------*- C++ -*----------------------------------*\
| =========                 |                                                 |
| \\      /  F ield         | OpenFOAM: The Open Source CFD Toolbox           |
|  \\    /   O peration     | Version:  v2012                                 |
|   \\  /    A nd           | Website:  www.openfoam.com                      |
|    \\/     M anipulation  |                                                 |
\*---------------------------------------------------------------------------*/
FoamFile
{
    version     2.0;
    format      ascii;
    class       featureEdgeMesh;
    location    "constant/triSurface";
    object      airfoil.eMesh;
}
// * * * * * * * * * * * * * * * * * * * * * * * * * * * * * * * * * * * * * //


// points:

7996
(
(1 0.5 -1.66533e-17)
(1 -0.5 -1.66533e-17)
(0 0.5 0)
(6.17467e-07 0.5 0.000139934)
(6.17467e-07 0.5 -0.000139934)
(2.46987e-06 0.5 0.000279775)
(5.5572e-06 0.5 0.000419522)
(9.87945e-06 0.5 0.000559175)
(1.54366e-05 0.5 0.000698735)
(2.22287e-05 0.5 0.000838201)
(3.02556e-05 0.5 0.000977573)
(3.95174e-05 0.5 0.00111685)
(5.0014e-05 0.5 0.00125603)
(6.17455e-05 0.5 0.00139512)
(7.47117e-05 0.5 0.00153412)
(8.89127e-05 0.5 0.00167302)
(0.000104348 0.5 0.00181183)
(0.000121019 0.5 0.00195054)
(0.000138924 0.5 0.00208916)
(0.000158063 0.5 0.00222768)
(0.000178438 0.5 0.00236611)
(0.000200046 0.5 0.00250444)
(0.000222889 0.5 0.00264268)
(0.000246967 0.5 0.00278082)
(0.000272278 0.5 0.00291886)
(0.000298825 0.5 0.00305681)
(0.000326605 0.5 0.00319467)
(0.000355619 0.5 0.00333243)
(0.000385868 0.5 0.00347009)
(0.00041735 0.5 0.00360766)
(0.000450066 0.5 0.00374513)
(0.000484016 0.5 0.00388251)
(0.0005192 0.5 0.00401978)
(0.000555618 0.5 0.00415697)
(0.000593269 0.5 0.00429405)
(0.000632154 0.5 0.00443104)
(0.000672271 0.5 0.00456793)
(0.000713623 0.5 0.00470472)
(0.000756207 0.5 0.00484142)
(0.000800025 0.5 0.00497802)
(0.000845075 0.5 0.00511452)
(0.000891358 0.5 0.00525093)
(0.000938874 0.5 0.00538723)
(0.000987623 0.5 0.00552344)
(0.0010376 0.5 0.00565955)
(0.00108882 0.5 0.00579556)
(0.00114126 0.5 0.00593148)
(0.00119494 0.5 0.00606729)
(0.00124985 0.5 0.00620301)
(0.00130599 0.5 0.00633862)
(0.00136337 0.5 0.00647414)
(0.00142197 0.5 0.00660956)
(0.00148181 0.5 0.00674488)
(0.00154287 0.5 0.0068801)
(0.00160517 0.5 0.00701522)
(0.0016687 0.5 0.00715024)
(0.00173346 0.5 0.00728516)
(0.00179946 0.5 0.00741998)
(0.00186668 0.5 0.00755469)
(0.00193513 0.5 0.00768931)
(0.00200481 0.5 0.00782383)
(0.00207572 0.5 0.00795825)
(0.00214787 0.5 0.00809256)
(0.00222124 0.5 0.00822677)
(0.00229584 0.5 0.00836089)
(0.00237167 0.5 0.00849489)
(0.00244873 0.5 0.0086288)
(0.00252702 0.5 0.00876261)
(0.00260653 0.5 0.00889631)
(0.00268728 0.5 0.00902991)
(0.00276925 0.5 0.00916341)
(0.00285245 0.5 0.00929681)
(0.00293688 0.5 0.0094301)
(0.00302254 0.5 0.00956329)
(0.00310943 0.5 0.00969638)
(0.00319754 0.5 0.00982936)
(0.00328688 0.5 0.00996224)
(0.00337744 0.5 0.010095)
(0.00346924 0.5 0.0102277)
(0.00356226 0.5 0.0103602)
(0.0036565 0.5 0.0104927)
(0.00375197 0.5 0.0106251)
(0.00384867 0.5 0.0107573)
(0.00394659 0.5 0.0108895)
(0.00404574 0.5 0.0110215)
(0.00414611 0.5 0.0111534)
(0.00424771 0.5 0.0112853)
(0.00435053 0.5 0.011417)
(0.00445457 0.5 0.0115486)
(0.00455984 0.5 0.0116801)
(0.00466634 0.5 0.0118115)
(0.00477405 0.5 0.0119428)
(0.00488299 0.5 0.012074)
(0.00499316 0.5 0.0122051)
(0.00510454 0.5 0.012336)
(0.00521715 0.5 0.0124669)
(0.00533098 0.5 0.0125976)
(0.00544603 0.5 0.0127283)
(0.0055623 0.5 0.0128588)
(0.0056798 0.5 0.0129893)
(0.00579851 0.5 0.0131196)
(0.00591845 0.5 0.0132498)
(0.0060396 0.5 0.0133799)
(0.00616198 0.5 0.0135099)
(0.00628557 0.5 0.0136397)
(0.00641039 0.5 0.0137695)
(0.00653642 0.5 0.0138992)
(0.00666367 0.5 0.0140287)
(0.00679215 0.5 0.0141582)
(0.00692184 0.5 0.0142875)
(0.00705274 0.5 0.0144167)
(0.00718487 0.5 0.0145458)
(0.00731821 0.5 0.0146748)
(0.00745277 0.5 0.0148036)
(0.00758854 0.5 0.0149324)
(0.00772554 0.5 0.0150611)
(0.00786374 0.5 0.0151896)
(0.00800317 0.5 0.015318)
(0.0081438 0.5 0.0154463)
(0.00828566 0.5 0.0155745)
(0.00842873 0.5 0.0157026)
(0.00857301 0.5 0.0158306)
(0.0087185 0.5 0.0159584)
(0.00886521 0.5 0.0160861)
(0.00901313 0.5 0.0162138)
(0.00916227 0.5 0.0163413)
(0.00931261 0.5 0.0164686)
(0.00946417 0.5 0.0165959)
(0.00961694 0.5 0.0167231)
(0.00977093 0.5 0.0168501)
(0.00992612 0.5 0.016977)
(0.0100825 0.5 0.0171038)
(0.0102401 0.5 0.0172305)
(0.010399 0.5 0.0173571)
(0.010559 0.5 0.0174835)
(0.0107202 0.5 0.0176099)
(0.0108827 0.5 0.0177361)
(0.0110463 0.5 0.0178622)
(0.0112112 0.5 0.0179881)
(0.0113773 0.5 0.018114)
(0.0115445 0.5 0.0182397)
(0.011713 0.5 0.0183653)
(0.0118827 0.5 0.0184908)
(0.0120536 0.5 0.0186162)
(0.0122257 0.5 0.0187414)
(0.012399 0.5 0.0188666)
(0.0125735 0.5 0.0189916)
(0.0127493 0.5 0.0191165)
(0.0129262 0.5 0.0192412)
(0.0131043 0.5 0.0193659)
(0.0132836 0.5 0.0194904)
(0.0134641 0.5 0.0196148)
(0.0136459 0.5 0.019739)
(0.0138288 0.5 0.0198632)
(0.0140129 0.5 0.0199872)
(0.0141983 0.5 0.0201111)
(0.0143848 0.5 0.0202349)
(0.0145725 0.5 0.0203585)
(0.0147614 0.5 0.020482)
(0.0149516 0.5 0.0206054)
(0.0151429 0.5 0.0207287)
(0.0153354 0.5 0.0208518)
(0.0155291 0.5 0.0209749)
(0.0157241 0.5 0.0210977)
(0.0159202 0.5 0.0212205)
(0.0161175 0.5 0.0213431)
(0.016316 0.5 0.0214656)
(0.0165157 0.5 0.021588)
(0.0167166 0.5 0.0217103)
(0.0169186 0.5 0.0218324)
(0.0171219 0.5 0.0219544)
(0.0173264 0.5 0.0220762)
(0.0175321 0.5 0.0221979)
(0.0177389 0.5 0.0223195)
(0.017947 0.5 0.022441)
(0.0181562 0.5 0.0225623)
(0.0183666 0.5 0.0226835)
(0.0185782 0.5 0.0228046)
(0.018791 0.5 0.0229255)
(0.019005 0.5 0.0230464)
(0.0192202 0.5 0.023167)
(0.0194366 0.5 0.0232876)
(0.0196541 0.5 0.023408)
(0.0198729 0.5 0.0235282)
(0.0200928 0.5 0.0236484)
(0.0203139 0.5 0.0237684)
(0.0205362 0.5 0.0238883)
(0.0207597 0.5 0.024008)
(0.0209844 0.5 0.0241276)
(0.0212102 0.5 0.0242471)
(0.0214373 0.5 0.0243664)
(0.0216655 0.5 0.0244856)
(0.0218949 0.5 0.0246046)
(0.0221255 0.5 0.0247235)
(0.0223572 0.5 0.0248423)
(0.0225901 0.5 0.024961)
(0.0228243 0.5 0.0250794)
(0.0230596 0.5 0.0251978)
(0.023296 0.5 0.025316)
(0.0235337 0.5 0.0254341)
(0.0237725 0.5 0.0255521)
(0.0240125 0.5 0.0256699)
(0.0242537 0.5 0.0257875)
(0.024496 0.5 0.0259051)
(0.0247396 0.5 0.0260224)
(0.0249843 0.5 0.0261397)
(0.0252301 0.5 0.0262568)
(0.0254772 0.5 0.0263737)
(0.0257254 0.5 0.0264906)
(0.0259748 0.5 0.0266072)
(0.0262254 0.5 0.0267237)
(0.0264771 0.5 0.0268401)
(0.02673 0.5 0.0269564)
(0.0269841 0.5 0.0270725)
(0.0272393 0.5 0.0271884)
(0.0274957 0.5 0.0273042)
(0.0277533 0.5 0.0274199)
(0.028012 0.5 0.0275354)
(0.0282719 0.5 0.0276507)
(0.028533 0.5 0.027766)
(0.0287952 0.5 0.027881)
(0.0290586 0.5 0.027996)
(0.0293232 0.5 0.0281107)
(0.0295889 0.5 0.0282254)
(0.0298558 0.5 0.0283398)
(0.0301238 0.5 0.0284542)
(0.030393 0.5 0.0285684)
(0.0306634 0.5 0.0286824)
(0.0309349 0.5 0.0287963)
(0.0312076 0.5 0.02891)
(0.0314815 0.5 0.0290236)
(0.0317565 0.5 0.029137)
(0.0320326 0.5 0.0292503)
(0.0323099 0.5 0.0293634)
(0.0325884 0.5 0.0294764)
(0.032868 0.5 0.0295892)
(0.0331488 0.5 0.0297019)
(0.0334307 0.5 0.0298144)
(0.0337138 0.5 0.0299268)
(0.033998 0.5 0.030039)
(0.0342834 0.5 0.030151)
(0.03457 0.5 0.0302629)
(0.0348576 0.5 0.0303747)
(0.0351465 0.5 0.0304863)
(0.0354365 0.5 0.0305977)
(0.0357276 0.5 0.030709)
(0.0360199 0.5 0.0308201)
(0.0363133 0.5 0.030931)
(0.0366079 0.5 0.0310418)
(0.0369036 0.5 0.0311525)
(0.0372004 0.5 0.031263)
(0.0374984 0.5 0.0313733)
(0.0377976 0.5 0.0314834)
(0.0380978 0.5 0.0315935)
(0.0383992 0.5 0.0317033)
(0.0387018 0.5 0.031813)
(0.0390055 0.5 0.0319225)
(0.0393104 0.5 0.0320319)
(0.0396163 0.5 0.0321411)
(0.0399235 0.5 0.0322501)
(0.0402317 0.5 0.032359)
(0.0405411 0.5 0.0324677)
(0.0408516 0.5 0.0325763)
(0.0411633 0.5 0.0326847)
(0.0414761 0.5 0.0327929)
(0.04179 0.5 0.032901)
(0.042105 0.5 0.0330089)
(0.0424212 0.5 0.0331166)
(0.0427385 0.5 0.0332242)
(0.043057 0.5 0.0333316)
(0.0433766 0.5 0.0334388)
(0.0436972 0.5 0.0335459)
(0.0440191 0.5 0.0336528)
(0.044342 0.5 0.0337595)
(0.0446661 0.5 0.0338661)
(0.0449913 0.5 0.0339725)
(0.0453176 0.5 0.0340787)
(0.0456451 0.5 0.0341848)
(0.0459737 0.5 0.0342906)
(0.0463034 0.5 0.0343964)
(0.0466342 0.5 0.0345019)
(0.0469661 0.5 0.0346073)
(0.0472992 0.5 0.0347125)
(0.0476333 0.5 0.0348175)
(0.0479686 0.5 0.0349224)
(0.048305 0.5 0.0350271)
(0.0486425 0.5 0.0351316)
(0.0489812 0.5 0.035236)
(0.0493209 0.5 0.0353402)
(0.0496618 0.5 0.0354442)
(0.0500038 0.5 0.035548)
(0.0503469 0.5 0.0356516)
(0.050691 0.5 0.0357551)
(0.0510364 0.5 0.0358584)
(0.0513828 0.5 0.0359616)
(0.0517303 0.5 0.0360645)
(0.0520789 0.5 0.0361673)
(0.0524287 0.5 0.0362699)
(0.0527795 0.5 0.0363723)
(0.0531314 0.5 0.0364745)
(0.0534845 0.5 0.0365766)
(0.0538387 0.5 0.0366785)
(0.0541939 0.5 0.0367802)
(0.0545503 0.5 0.0368817)
(0.0549077 0.5 0.0369831)
(0.0552663 0.5 0.0370843)
(0.0556259 0.5 0.0371853)
(0.0559867 0.5 0.0372861)
(0.0563485 0.5 0.0373867)
(0.0567115 0.5 0.0374872)
(0.0570755 0.5 0.0375874)
(0.0574406 0.5 0.0376875)
(0.0578069 0.5 0.0377874)
(0.0581742 0.5 0.0378871)
(0.0585426 0.5 0.0379867)
(0.0589121 0.5 0.038086)
(0.0592827 0.5 0.0381852)
(0.0596544 0.5 0.0382842)
(0.0600271 0.5 0.038383)
(0.060401 0.5 0.0384816)
(0.0607759 0.5 0.03858)
(0.061152 0.5 0.0386783)
(0.0615291 0.5 0.0387763)
(0.0619072 0.5 0.0388742)
(0.0622865 0.5 0.0389719)
(0.0626669 0.5 0.0390694)
(0.0630483 0.5 0.0391667)
(0.0634308 0.5 0.0392638)
(0.0638144 0.5 0.0393607)
(0.0641991 0.5 0.0394574)
(0.0645848 0.5 0.039554)
(0.0649716 0.5 0.0396504)
(0.0653595 0.5 0.0397465)
(0.0657485 0.5 0.0398425)
(0.0661385 0.5 0.0399383)
(0.0665296 0.5 0.0400339)
(0.0669218 0.5 0.0401293)
(0.0673151 0.5 0.0402245)
(0.0677094 0.5 0.0403195)
(0.0681048 0.5 0.0404143)
(0.0685012 0.5 0.040509)
(0.0688988 0.5 0.0406034)
(0.0692974 0.5 0.0406977)
(0.069697 0.5 0.0407917)
(0.0700977 0.5 0.0408856)
(0.0704995 0.5 0.0409792)
(0.0709023 0.5 0.0410727)
(0.0713062 0.5 0.041166)
(0.0717112 0.5 0.041259)
(0.0721172 0.5 0.0413519)
(0.0725242 0.5 0.0414446)
(0.0729324 0.5 0.0415371)
(0.0733415 0.5 0.0416294)
(0.0737518 0.5 0.0417214)
(0.0741631 0.5 0.0418133)
(0.0745754 0.5 0.041905)
(0.0749888 0.5 0.0419965)
(0.0754032 0.5 0.0420878)
(0.0758187 0.5 0.0421789)
(0.0762352 0.5 0.0422698)
(0.0766528 0.5 0.0423605)
(0.0770715 0.5 0.042451)
(0.0774911 0.5 0.0425413)
(0.0779118 0.5 0.0426313)
(0.0783336 0.5 0.0427212)
(0.0787564 0.5 0.0428109)
(0.0791802 0.5 0.0429004)
(0.0796051 0.5 0.0429896)
(0.080031 0.5 0.0430787)
(0.080458 0.5 0.0431676)
(0.080886 0.5 0.0432562)
(0.081315 0.5 0.0433447)
(0.0817451 0.5 0.043433)
(0.0821761 0.5 0.043521)
(0.0826083 0.5 0.0436089)
(0.0830414 0.5 0.0436965)
(0.0834756 0.5 0.0437839)
(0.0839108 0.5 0.0438711)
(0.0843471 0.5 0.0439581)
(0.0847843 0.5 0.0440449)
(0.0852226 0.5 0.0441316)
(0.0856619 0.5 0.0442179)
(0.0861023 0.5 0.0443041)
(0.0865436 0.5 0.0443901)
(0.086986 0.5 0.0444759)
(0.0874294 0.5 0.0445614)
(0.0878739 0.5 0.0446468)
(0.0883193 0.5 0.0447319)
(0.0887658 0.5 0.0448168)
(0.0892132 0.5 0.0449015)
(0.0896617 0.5 0.044986)
(0.0901112 0.5 0.0450703)
(0.0905617 0.5 0.0451544)
(0.0910133 0.5 0.0452383)
(0.0914658 0.5 0.0453219)
(0.0919193 0.5 0.0454054)
(0.0923739 0.5 0.0454886)
(0.0928295 0.5 0.0455716)
(0.093286 0.5 0.0456544)
(0.0937436 0.5 0.045737)
(0.0942022 0.5 0.0458193)
(0.0946617 0.5 0.0459015)
(0.0951223 0.5 0.0459834)
(0.0955839 0.5 0.0460652)
(0.0960465 0.5 0.0461467)
(0.0965101 0.5 0.046228)
(0.0969746 0.5 0.046309)
(0.0974402 0.5 0.0463899)
(0.0979067 0.5 0.0464705)
(0.0983743 0.5 0.0465509)
(0.0988428 0.5 0.0466311)
(0.0993124 0.5 0.0467111)
(0.0997829 0.5 0.0467909)
(0.100254 0.5 0.0468705)
(0.100727 0.5 0.0469498)
(0.1012 0.5 0.0470289)
(0.101675 0.5 0.0471078)
(0.10215 0.5 0.0471864)
(0.102627 0.5 0.0472649)
(0.103104 0.5 0.0473431)
(0.103583 0.5 0.0474211)
(0.104062 0.5 0.0474989)
(0.104542 0.5 0.0475765)
(0.105024 0.5 0.0476538)
(0.105506 0.5 0.0477309)
(0.105989 0.5 0.0478078)
(0.106473 0.5 0.0478845)
(0.106959 0.5 0.047961)
(0.107445 0.5 0.0480372)
(0.107932 0.5 0.0481132)
(0.10842 0.5 0.048189)
(0.108909 0.5 0.0482645)
(0.109399 0.5 0.0483399)
(0.10989 0.5 0.048415)
(0.110382 0.5 0.0484899)
(0.110875 0.5 0.0485645)
(0.111369 0.5 0.0486389)
(0.111864 0.5 0.0487131)
(0.11236 0.5 0.0487871)
(0.112857 0.5 0.0488609)
(0.113355 0.5 0.0489344)
(0.113853 0.5 0.0490077)
(0.114353 0.5 0.0490808)
(0.114854 0.5 0.0491536)
(0.115355 0.5 0.0492262)
(0.115858 0.5 0.0492986)
(0.116361 0.5 0.0493707)
(0.116866 0.5 0.0494427)
(0.117371 0.5 0.0495144)
(0.117877 0.5 0.0495858)
(0.118385 0.5 0.0496571)
(0.118893 0.5 0.0497281)
(0.119402 0.5 0.0497989)
(0.119912 0.5 0.0498694)
(0.120423 0.5 0.0499397)
(0.120935 0.5 0.0500098)
(0.121448 0.5 0.0500797)
(0.121961 0.5 0.0501493)
(0.122476 0.5 0.0502187)
(0.122992 0.5 0.0502878)
(0.123509 0.5 0.0503567)
(0.124026 0.5 0.0504254)
(0.124545 0.5 0.0504939)
(0.125064 0.5 0.0505621)
(0.125584 0.5 0.0506301)
(0.126106 0.5 0.0506979)
(0.126628 0.5 0.0507654)
(0.127151 0.5 0.0508327)
(0.127675 0.5 0.0508998)
(0.1282 0.5 0.0509666)
(0.128726 0.5 0.0510332)
(0.129252 0.5 0.0510995)
(0.12978 0.5 0.0511656)
(0.130309 0.5 0.0512315)
(0.130838 0.5 0.0512972)
(0.131369 0.5 0.0513626)
(0.1319 0.5 0.0514277)
(0.132432 0.5 0.0514927)
(0.132966 0.5 0.0515574)
(0.1335 0.5 0.0516218)
(0.134034 0.5 0.0516861)
(0.13457 0.5 0.0517501)
(0.135107 0.5 0.0518138)
(0.135645 0.5 0.0518773)
(0.136183 0.5 0.0519406)
(0.136723 0.5 0.0520036)
(0.137263 0.5 0.0520664)
(0.137804 0.5 0.052129)
(0.138347 0.5 0.0521913)
(0.13889 0.5 0.0522534)
(0.139434 0.5 0.0523152)
(0.139978 0.5 0.0523768)
(0.140524 0.5 0.0524382)
(0.141071 0.5 0.0524993)
(0.141618 0.5 0.0525602)
(0.142167 0.5 0.0526209)
(0.142716 0.5 0.0526812)
(0.143266 0.5 0.0527414)
(0.143817 0.5 0.0528013)
(0.144369 0.5 0.052861)
(0.144922 0.5 0.0529204)
(0.145476 0.5 0.0529796)
(0.14603 0.5 0.0530386)
(0.146585 0.5 0.0530973)
(0.147142 0.5 0.0531558)
(0.147699 0.5 0.053214)
(0.148257 0.5 0.053272)
(0.148816 0.5 0.0533297)
(0.149376 0.5 0.0533872)
(0.149936 0.5 0.0534445)
(0.150498 0.5 0.0535015)
(0.15106 0.5 0.0535583)
(0.151623 0.5 0.0536148)
(0.152187 0.5 0.0536711)
(0.152753 0.5 0.0537271)
(0.153318 0.5 0.0537829)
(0.153885 0.5 0.0538385)
(0.154452 0.5 0.0538938)
(0.155021 0.5 0.0539488)
(0.15559 0.5 0.0540036)
(0.15616 0.5 0.0540582)
(0.156731 0.5 0.0541125)
(0.157303 0.5 0.0541666)
(0.157875 0.5 0.0542205)
(0.158449 0.5 0.054274)
(0.159023 0.5 0.0543274)
(0.159598 0.5 0.0543805)
(0.160174 0.5 0.0544333)
(0.160751 0.5 0.054486)
(0.161329 0.5 0.0545383)
(0.161907 0.5 0.0545904)
(0.162487 0.5 0.0546423)
(0.163067 0.5 0.0546939)
(0.163648 0.5 0.0547453)
(0.16423 0.5 0.0547964)
(0.164812 0.5 0.0548473)
(0.165396 0.5 0.0548979)
(0.16598 0.5 0.0549483)
(0.166565 0.5 0.0549984)
(0.167151 0.5 0.0550483)
(0.167738 0.5 0.055098)
(0.168326 0.5 0.0551474)
(0.168914 0.5 0.0551965)
(0.169503 0.5 0.0552454)
(0.170093 0.5 0.0552941)
(0.170684 0.5 0.0553425)
(0.171276 0.5 0.0553906)
(0.171868 0.5 0.0554385)
(0.172462 0.5 0.0554862)
(0.173056 0.5 0.0555336)
(0.173651 0.5 0.0555808)
(0.174246 0.5 0.0556277)
(0.174843 0.5 0.0556743)
(0.17544 0.5 0.0557207)
(0.176039 0.5 0.0557669)
(0.176637 0.5 0.0558128)
(0.177237 0.5 0.0558585)
(0.177838 0.5 0.0559039)
(0.178439 0.5 0.0559491)
(0.179041 0.5 0.055994)
(0.179644 0.5 0.0560386)
(0.180248 0.5 0.0560831)
(0.180852 0.5 0.0561272)
(0.181458 0.5 0.0561711)
(0.182064 0.5 0.0562148)
(0.182671 0.5 0.0562582)
(0.183278 0.5 0.0563014)
(0.183887 0.5 0.0563443)
(0.184496 0.5 0.056387)
(0.185106 0.5 0.0564294)
(0.185716 0.5 0.0564715)
(0.186328 0.5 0.0565135)
(0.18694 0.5 0.0565551)
(0.187553 0.5 0.0565965)
(0.188167 0.5 0.0566377)
(0.188782 0.5 0.0566786)
(0.189397 0.5 0.0567193)
(0.190013 0.5 0.0567597)
(0.19063 0.5 0.0567998)
(0.191248 0.5 0.0568397)
(0.191867 0.5 0.0568794)
(0.192486 0.5 0.0569188)
(0.193106 0.5 0.0569579)
(0.193727 0.5 0.0569968)
(0.194348 0.5 0.0570355)
(0.19497 0.5 0.0570739)
(0.195593 0.5 0.057112)
(0.196217 0.5 0.0571499)
(0.196842 0.5 0.0571875)
(0.197467 0.5 0.0572249)
(0.198093 0.5 0.0572621)
(0.19872 0.5 0.057299)
(0.199347 0.5 0.0573356)
(0.199975 0.5 0.057372)
(0.200604 0.5 0.0574081)
(0.201234 0.5 0.057444)
(0.201864 0.5 0.0574796)
(0.202496 0.5 0.057515)
(0.203128 0.5 0.0575501)
(0.20376 0.5 0.057585)
(0.204394 0.5 0.0576196)
(0.205028 0.5 0.057654)
(0.205663 0.5 0.0576881)
(0.206298 0.5 0.057722)
(0.206934 0.5 0.0577556)
(0.207571 0.5 0.057789)
(0.208209 0.5 0.0578221)
(0.208848 0.5 0.0578549)
(0.209487 0.5 0.0578876)
(0.210127 0.5 0.0579199)
(0.210767 0.5 0.057952)
(0.211409 0.5 0.0579839)
(0.212051 0.5 0.0580155)
(0.212693 0.5 0.0580468)
(0.213337 0.5 0.0580779)
(0.213981 0.5 0.0581088)
(0.214626 0.5 0.0581394)
(0.215272 0.5 0.0581697)
(0.215918 0.5 0.0581998)
(0.216565 0.5 0.0582296)
(0.217213 0.5 0.0582592)
(0.217861 0.5 0.0582885)
(0.21851 0.5 0.0583176)
(0.21916 0.5 0.0583465)
(0.21981 0.5 0.058375)
(0.220462 0.5 0.0584034)
(0.221113 0.5 0.0584315)
(0.221766 0.5 0.0584593)
(0.222419 0.5 0.0584868)
(0.223073 0.5 0.0585142)
(0.223728 0.5 0.0585412)
(0.224383 0.5 0.0585681)
(0.225039 0.5 0.0585946)
(0.225696 0.5 0.058621)
(0.226353 0.5 0.058647)
(0.227011 0.5 0.0586728)
(0.22767 0.5 0.0586984)
(0.228329 0.5 0.0587237)
(0.228989 0.5 0.0587488)
(0.229649 0.5 0.0587736)
(0.230311 0.5 0.0587982)
(0.230973 0.5 0.0588225)
(0.231636 0.5 0.0588465)
(0.232299 0.5 0.0588703)
(0.232963 0.5 0.0588939)
(0.233628 0.5 0.0589172)
(0.234293 0.5 0.0589403)
(0.234959 0.5 0.0589631)
(0.235626 0.5 0.0589857)
(0.236293 0.5 0.059008)
(0.236961 0.5 0.05903)
(0.237629 0.5 0.0590518)
(0.238299 0.5 0.0590734)
(0.238969 0.5 0.0590947)
(0.239639 0.5 0.0591158)
(0.24031 0.5 0.0591366)
(0.240982 0.5 0.0591571)
(0.241655 0.5 0.0591775)
(0.242328 0.5 0.0591975)
(0.243001 0.5 0.0592173)
(0.243676 0.5 0.0592369)
(0.244351 0.5 0.0592562)
(0.245026 0.5 0.0592753)
(0.245703 0.5 0.0592941)
(0.246379 0.5 0.0593127)
(0.247057 0.5 0.059331)
(0.247735 0.5 0.059349)
(0.248414 0.5 0.0593669)
(0.249093 0.5 0.0593845)
(0.249773 0.5 0.0594018)
(0.250454 0.5 0.0594189)
(0.251135 0.5 0.0594357)
(0.251817 0.5 0.0594523)
(0.252499 0.5 0.0594686)
(0.253182 0.5 0.0594847)
(0.253866 0.5 0.0595005)
(0.25455 0.5 0.0595161)
(0.255235 0.5 0.0595315)
(0.255921 0.5 0.0595466)
(0.256607 0.5 0.0595614)
(0.257294 0.5 0.059576)
(0.257981 0.5 0.0595904)
(0.258669 0.5 0.0596045)
(0.259357 0.5 0.0596184)
(0.260046 0.5 0.059632)
(0.260736 0.5 0.0596454)
(0.261426 0.5 0.0596585)
(0.262117 0.5 0.0596714)
(0.262809 0.5 0.059684)
(0.263501 0.5 0.0596964)
(0.264193 0.5 0.0597086)
(0.264887 0.5 0.0597205)
(0.26558 0.5 0.0597321)
(0.266275 0.5 0.0597435)
(0.26697 0.5 0.0597547)
(0.267665 0.5 0.0597656)
(0.268361 0.5 0.0597763)
(0.269058 0.5 0.0597867)
(0.269755 0.5 0.0597969)
(0.270453 0.5 0.0598069)
(0.271151 0.5 0.0598166)
(0.27185 0.5 0.059826)
(0.27255 0.5 0.0598353)
(0.27325 0.5 0.0598442)
(0.27395 0.5 0.059853)
(0.274652 0.5 0.0598615)
(0.275353 0.5 0.0598697)
(0.276056 0.5 0.0598777)
(0.276758 0.5 0.0598855)
(0.277462 0.5 0.059893)
(0.278166 0.5 0.0599003)
(0.27887 0.5 0.0599073)
(0.279575 0.5 0.0599141)
(0.280281 0.5 0.0599206)
(0.280987 0.5 0.059927)
(0.281694 0.5 0.059933)
(0.282401 0.5 0.0599389)
(0.283109 0.5 0.0599445)
(0.283817 0.5 0.0599498)
(0.284526 0.5 0.0599549)
(0.285235 0.5 0.0599598)
(0.285945 0.5 0.0599644)
(0.286655 0.5 0.0599688)
(0.287366 0.5 0.0599729)
(0.288078 0.5 0.0599769)
(0.28879 0.5 0.0599805)
(0.289502 0.5 0.059984)
(0.290215 0.5 0.0599872)
(0.290929 0.5 0.0599901)
(0.291643 0.5 0.0599928)
(0.292358 0.5 0.0599953)
(0.293073 0.5 0.0599976)
(0.293788 0.5 0.0599996)
(0.294504 0.5 0.0600013)
(0.295221 0.5 0.0600029)
(0.295938 0.5 0.0600042)
(0.296656 0.5 0.0600052)
(0.297374 0.5 0.060006)
(0.298092 0.5 0.0600066)
(0.298811 0.5 0.060007)
(0.299531 0.5 0.0600071)
(0.300251 0.5 0.060007)
(0.300972 0.5 0.0600066)
(0.301693 0.5 0.060006)
(0.302415 0.5 0.0600052)
(0.303137 0.5 0.0600042)
(0.303859 0.5 0.0600029)
(0.304582 0.5 0.0600014)
(0.305306 0.5 0.0599996)
(0.30603 0.5 0.0599976)
(0.306754 0.5 0.0599954)
(0.307479 0.5 0.0599929)
(0.308205 0.5 0.0599902)
(0.308931 0.5 0.0599873)
(0.309657 0.5 0.0599842)
(0.310384 0.5 0.0599808)
(0.311111 0.5 0.0599772)
(0.311839 0.5 0.0599733)
(0.312567 0.5 0.0599692)
(0.313296 0.5 0.0599649)
(0.314025 0.5 0.0599604)
(0.314755 0.5 0.0599556)
(0.315485 0.5 0.0599506)
(0.316215 0.5 0.0599454)
(0.316946 0.5 0.0599399)
(0.317678 0.5 0.0599342)
(0.31841 0.5 0.0599283)
(0.319142 0.5 0.0599222)
(0.319875 0.5 0.0599158)
(0.320608 0.5 0.0599092)
(0.321342 0.5 0.0599023)
(0.322076 0.5 0.0598953)
(0.322811 0.5 0.059888)
(0.323546 0.5 0.0598805)
(0.324281 0.5 0.0598728)
(0.325017 0.5 0.0598648)
(0.325753 0.5 0.0598566)
(0.32649 0.5 0.0598482)
(0.327227 0.5 0.0598395)
(0.327965 0.5 0.0598307)
(0.328703 0.5 0.0598216)
(0.329441 0.5 0.0598123)
(0.33018 0.5 0.0598027)
(0.330919 0.5 0.059793)
(0.331659 0.5 0.059783)
(0.332399 0.5 0.0597727)
(0.33314 0.5 0.0597623)
(0.333881 0.5 0.0597516)
(0.334622 0.5 0.0597408)
(0.335364 0.5 0.0597297)
(0.336106 0.5 0.0597183)
(0.336849 0.5 0.0597068)
(0.337592 0.5 0.059695)
(0.338335 0.5 0.059683)
(0.339079 0.5 0.0596708)
(0.339823 0.5 0.0596584)
(0.340567 0.5 0.0596457)
(0.341312 0.5 0.0596329)
(0.342058 0.5 0.0596198)
(0.342804 0.5 0.0596065)
(0.34355 0.5 0.059593)
(0.344296 0.5 0.0595792)
(0.345043 0.5 0.0595652)
(0.345791 0.5 0.0595511)
(0.346538 0.5 0.0595367)
(0.347286 0.5 0.0595221)
(0.348035 0.5 0.0595072)
(0.348783 0.5 0.0594922)
(0.349533 0.5 0.0594769)
(0.350282 0.5 0.0594614)
(0.351032 0.5 0.0594457)
(0.351782 0.5 0.0594298)
(0.352533 0.5 0.0594137)
(0.353284 0.5 0.0593973)
(0.354035 0.5 0.0593808)
(0.354787 0.5 0.059364)
(0.355539 0.5 0.059347)
(0.356292 0.5 0.0593298)
(0.357044 0.5 0.0593124)
(0.357798 0.5 0.0592948)
(0.358551 0.5 0.059277)
(0.359305 0.5 0.0592589)
(0.360059 0.5 0.0592407)
(0.360814 0.5 0.0592222)
(0.361569 0.5 0.0592035)
(0.362324 0.5 0.0591846)
(0.36308 0.5 0.0591655)
(0.363836 0.5 0.0591462)
(0.364592 0.5 0.0591267)
(0.365348 0.5 0.059107)
(0.366105 0.5 0.059087)
(0.366863 0.5 0.0590669)
(0.36762 0.5 0.0590465)
(0.368378 0.5 0.059026)
(0.369136 0.5 0.0590052)
(0.369895 0.5 0.0589842)
(0.370654 0.5 0.0589631)
(0.371413 0.5 0.0589417)
(0.372173 0.5 0.0589201)
(0.372932 0.5 0.0588983)
(0.373692 0.5 0.0588763)
(0.374453 0.5 0.0588541)
(0.375214 0.5 0.0588317)
(0.375975 0.5 0.058809)
(0.376736 0.5 0.0587862)
(0.377498 0.5 0.0587632)
(0.37826 0.5 0.05874)
(0.379022 0.5 0.0587165)
(0.379785 0.5 0.0586929)
(0.380548 0.5 0.0586691)
(0.381311 0.5 0.058645)
(0.382074 0.5 0.0586208)
(0.382838 0.5 0.0585964)
(0.383602 0.5 0.0585717)
(0.384366 0.5 0.0585469)
(0.385131 0.5 0.0585218)
(0.385896 0.5 0.0584966)
(0.386661 0.5 0.0584712)
(0.387427 0.5 0.0584455)
(0.388192 0.5 0.0584197)
(0.388958 0.5 0.0583937)
(0.389725 0.5 0.0583674)
(0.390491 0.5 0.058341)
(0.391258 0.5 0.0583144)
(0.392025 0.5 0.0582876)
(0.392793 0.5 0.0582606)
(0.39356 0.5 0.0582334)
(0.394328 0.5 0.058206)
(0.395096 0.5 0.0581784)
(0.395865 0.5 0.0581506)
(0.396634 0.5 0.0581226)
(0.397402 0.5 0.0580944)
(0.398172 0.5 0.058066)
(0.398941 0.5 0.0580375)
(0.399711 0.5 0.0580087)
(0.400481 0.5 0.0579798)
(0.401251 0.5 0.0579506)
(0.402021 0.5 0.0579213)
(0.402792 0.5 0.0578918)
(0.403563 0.5 0.057862)
(0.404334 0.5 0.0578321)
(0.405106 0.5 0.0578021)
(0.405877 0.5 0.0577718)
(0.406649 0.5 0.0577413)
(0.407421 0.5 0.0577106)
(0.408193 0.5 0.0576798)
(0.408966 0.5 0.0576487)
(0.409739 0.5 0.0576175)
(0.410512 0.5 0.0575861)
(0.411285 0.5 0.0575545)
(0.412058 0.5 0.0575227)
(0.412832 0.5 0.0574908)
(0.413606 0.5 0.0574586)
(0.41438 0.5 0.0574263)
(0.415154 0.5 0.0573938)
(0.415929 0.5 0.0573611)
(0.416703 0.5 0.0573282)
(0.417478 0.5 0.0572951)
(0.418254 0.5 0.0572618)
(0.419029 0.5 0.0572284)
(0.419804 0.5 0.0571948)
(0.42058 0.5 0.057161)
(0.421356 0.5 0.057127)
(0.422132 0.5 0.0570928)
(0.422908 0.5 0.0570585)
(0.423685 0.5 0.057024)
(0.424462 0.5 0.0569893)
(0.425238 0.5 0.0569544)
(0.426015 0.5 0.0569193)
(0.426793 0.5 0.0568841)
(0.42757 0.5 0.0568487)
(0.428348 0.5 0.0568131)
(0.429125 0.5 0.0567773)
(0.429903 0.5 0.0567414)
(0.430681 0.5 0.0567052)
(0.43146 0.5 0.0566689)
(0.432238 0.5 0.0566325)
(0.433017 0.5 0.0565958)
(0.433796 0.5 0.056559)
(0.434575 0.5 0.056522)
(0.435354 0.5 0.0564848)
(0.436133 0.5 0.0564475)
(0.436912 0.5 0.05641)
(0.437692 0.5 0.0563723)
(0.438472 0.5 0.0563344)
(0.439252 0.5 0.0562964)
(0.440032 0.5 0.0562582)
(0.440812 0.5 0.0562198)
(0.441592 0.5 0.0561812)
(0.442373 0.5 0.0561425)
(0.443153 0.5 0.0561036)
(0.443934 0.5 0.0560646)
(0.444715 0.5 0.0560254)
(0.445496 0.5 0.055986)
(0.446277 0.5 0.0559464)
(0.447058 0.5 0.0559067)
(0.44784 0.5 0.0558668)
(0.448622 0.5 0.0558267)
(0.449403 0.5 0.0557865)
(0.450185 0.5 0.0557461)
(0.450967 0.5 0.0557056)
(0.451749 0.5 0.0556648)
(0.452531 0.5 0.055624)
(0.453313 0.5 0.0555829)
(0.454096 0.5 0.0555417)
(0.454879 0.5 0.0555003)
(0.455661 0.5 0.0554588)
(0.456444 0.5 0.0554171)
(0.457227 0.5 0.0553752)
(0.45801 0.5 0.0553332)
(0.458793 0.5 0.055291)
(0.459576 0.5 0.0552487)
(0.460359 0.5 0.0552062)
(0.461143 0.5 0.0551635)
(0.461926 0.5 0.0551207)
(0.46271 0.5 0.0550777)
(0.463493 0.5 0.0550346)
(0.464277 0.5 0.0549913)
(0.465061 0.5 0.0549478)
(0.465845 0.5 0.0549042)
(0.466629 0.5 0.0548604)
(0.467413 0.5 0.0548165)
(0.468197 0.5 0.0547724)
(0.468981 0.5 0.0547282)
(0.469766 0.5 0.0546838)
(0.47055 0.5 0.0546392)
(0.471334 0.5 0.0545945)
(0.472119 0.5 0.0545497)
(0.472903 0.5 0.0545047)
(0.473688 0.5 0.0544595)
(0.474473 0.5 0.0544142)
(0.475258 0.5 0.0543687)
(0.476043 0.5 0.0543231)
(0.476828 0.5 0.0542774)
(0.477612 0.5 0.0542315)
(0.478397 0.5 0.0541854)
(0.479183 0.5 0.0541392)
(0.479968 0.5 0.0540928)
(0.480753 0.5 0.0540463)
(0.481538 0.5 0.0539996)
(0.482323 0.5 0.0539528)
(0.483109 0.5 0.0539059)
(0.483894 0.5 0.0538588)
(0.484679 0.5 0.0538115)
(0.485465 0.5 0.0537641)
(0.48625 0.5 0.0537166)
(0.487036 0.5 0.0536689)
(0.487821 0.5 0.0536211)
(0.488607 0.5 0.0535731)
(0.489393 0.5 0.053525)
(0.490178 0.5 0.0534767)
(0.490964 0.5 0.0534283)
(0.49175 0.5 0.0533798)
(0.492535 0.5 0.0533311)
(0.493321 0.5 0.0532822)
(0.494107 0.5 0.0532333)
(0.494892 0.5 0.0531841)
(0.495678 0.5 0.0531349)
(0.496464 0.5 0.0530855)
(0.49725 0.5 0.053036)
(0.498035 0.5 0.0529863)
(0.498821 0.5 0.0529365)
(0.499607 0.5 0.0528865)
(0.500393 0.5 0.0528364)
(0.501179 0.5 0.0527862)
(0.501965 0.5 0.0527359)
(0.50275 0.5 0.0526854)
(0.503536 0.5 0.0526347)
(0.504322 0.5 0.052584)
(0.505108 0.5 0.052533)
(0.505893 0.5 0.052482)
(0.506679 0.5 0.0524308)
(0.507465 0.5 0.0523795)
(0.50825 0.5 0.0523281)
(0.509036 0.5 0.0522765)
(0.509822 0.5 0.0522248)
(0.510607 0.5 0.052173)
(0.511393 0.5 0.052121)
(0.512179 0.5 0.0520689)
(0.512964 0.5 0.0520167)
(0.51375 0.5 0.0519643)
(0.514535 0.5 0.0519118)
(0.51532 0.5 0.0518592)
(0.516106 0.5 0.0518065)
(0.516891 0.5 0.0517536)
(0.517677 0.5 0.0517006)
(0.518462 0.5 0.0516475)
(0.519247 0.5 0.0515942)
(0.520032 0.5 0.0515408)
(0.520817 0.5 0.0514873)
(0.521603 0.5 0.0514337)
(0.522388 0.5 0.0513799)
(0.523172 0.5 0.051326)
(0.523957 0.5 0.051272)
(0.524742 0.5 0.0512179)
(0.525527 0.5 0.0511636)
(0.526312 0.5 0.0511092)
(0.527097 0.5 0.0510547)
(0.527881 0.5 0.0510001)
(0.528666 0.5 0.0509453)
(0.52945 0.5 0.0508905)
(0.530235 0.5 0.0508355)
(0.531019 0.5 0.0507804)
(0.531803 0.5 0.0507251)
(0.532587 0.5 0.0506698)
(0.533371 0.5 0.0506143)
(0.534155 0.5 0.0505587)
(0.534939 0.5 0.050503)
(0.535723 0.5 0.0504472)
(0.536507 0.5 0.0503912)
(0.53729 0.5 0.0503352)
(0.538074 0.5 0.050279)
(0.538857 0.5 0.0502227)
(0.539641 0.5 0.0501663)
(0.540424 0.5 0.0501098)
(0.541207 0.5 0.0500531)
(0.54199 0.5 0.0499964)
(0.542773 0.5 0.0499395)
(0.543556 0.5 0.0498825)
(0.544339 0.5 0.0498255)
(0.545121 0.5 0.0497683)
(0.545904 0.5 0.0497109)
(0.546686 0.5 0.0496535)
(0.547469 0.5 0.049596)
(0.548251 0.5 0.0495383)
(0.549033 0.5 0.0494806)
(0.549815 0.5 0.0494227)
(0.550597 0.5 0.0493647)
(0.551378 0.5 0.0493066)
(0.55216 0.5 0.0492484)
(0.552942 0.5 0.0491901)
(0.553723 0.5 0.0491317)
(0.554504 0.5 0.0490732)
(0.555285 0.5 0.0490146)
(0.556066 0.5 0.0489558)
(0.556847 0.5 0.048897)
(0.557627 0.5 0.048838)
(0.558408 0.5 0.048779)
(0.559188 0.5 0.0487198)
(0.559968 0.5 0.0486606)
(0.560748 0.5 0.0486012)
(0.561528 0.5 0.0485418)
(0.562308 0.5 0.0484822)
(0.563088 0.5 0.0484225)
(0.563867 0.5 0.0483627)
(0.564646 0.5 0.0483029)
(0.565425 0.5 0.0482429)
(0.566204 0.5 0.0481828)
(0.566983 0.5 0.0481226)
(0.567762 0.5 0.0480624)
(0.56854 0.5 0.048002)
(0.569318 0.5 0.0479415)
(0.570097 0.5 0.0478809)
(0.570875 0.5 0.0478203)
(0.571652 0.5 0.0477595)
(0.57243 0.5 0.0476986)
(0.573207 0.5 0.0476377)
(0.573985 0.5 0.0475766)
(0.574762 0.5 0.0475154)
(0.575539 0.5 0.0474542)
(0.576315 0.5 0.0473928)
(0.577092 0.5 0.0473314)
(0.577868 0.5 0.0472699)
(0.578644 0.5 0.0472082)
(0.57942 0.5 0.0471465)
(0.580196 0.5 0.0470847)
(0.580971 0.5 0.0470228)
(0.581747 0.5 0.0469608)
(0.582522 0.5 0.0468987)
(0.583297 0.5 0.0468365)
(0.584071 0.5 0.0467742)
(0.584846 0.5 0.0467119)
(0.58562 0.5 0.0466494)
(0.586394 0.5 0.0465869)
(0.587168 0.5 0.0465243)
(0.587942 0.5 0.0464615)
(0.588715 0.5 0.0463987)
(0.589488 0.5 0.0463358)
(0.590261 0.5 0.0462729)
(0.591034 0.5 0.0462098)
(0.591807 0.5 0.0461466)
(0.592579 0.5 0.0460834)
(0.593351 0.5 0.04602)
(0.594123 0.5 0.0459566)
(0.594895 0.5 0.0458931)
(0.595666 0.5 0.0458296)
(0.596437 0.5 0.0457659)
(0.597208 0.5 0.0457021)
(0.597979 0.5 0.0456383)
(0.598749 0.5 0.0455744)
(0.599519 0.5 0.0455104)
(0.600289 0.5 0.0454463)
(0.601059 0.5 0.0453821)
(0.601828 0.5 0.0453179)
(0.602598 0.5 0.0452536)
(0.603366 0.5 0.0451892)
(0.604135 0.5 0.0451247)
(0.604904 0.5 0.0450601)
(0.605672 0.5 0.0449955)
(0.60644 0.5 0.0449308)
(0.607207 0.5 0.044866)
(0.607975 0.5 0.0448011)
(0.608742 0.5 0.0447362)
(0.609509 0.5 0.0446711)
(0.610275 0.5 0.044606)
(0.611042 0.5 0.0445408)
(0.611808 0.5 0.0444756)
(0.612573 0.5 0.0444103)
(0.613339 0.5 0.0443448)
(0.614104 0.5 0.0442794)
(0.614869 0.5 0.0442138)
(0.615634 0.5 0.0441482)