/*--------------------------------*- C++ -*----------------------------------*\
| =========                 |                                                 |
| \\      /  F ield         | OpenFOAM: The Open Source CFD Toolbox           |
|  \\    /   O peration     | Version:  v2006                                 |
|   \\  /    A nd           | Website:  www.openfoam.com                      |
|    \\/     M anipulation  |                                                 |
\*---------------------------------------------------------------------------*/
FoamFile
{
    version     2.0;
    format      ascii;
    class       polyBoundaryMesh;
    location    "constant/polyMesh";
    object      boundary;
}
// * * * * * * * * * * * * * * * * * * * * * * * * * * * * * * * * * * * * * //

6
(
    topAndBottom
    {
        type            patch;
        nFaces          72;
        startFace       25132;
    }
    inlet
    {
        type            patch;
        nFaces          40;
        startFace       25204;
    }
    outlet
    {
        type            patch;
        nFaces          62;
        startFace       25244;
    }
    wing
    {
        type            wall;
        inGroups        1(wall);
        nFaces          376;
        startFace       25306;
    }
    front
    {
        type            empty;
        inGroups        1(empty);
        nFaces          12540;
        startFace       25682;
    }
    back
    {
        type            empty;
        inGroups        1(empty);
        nFaces          12540;
        startFace       38222;
    }
)

// ************************************************************************* //
